-------------------------------------------------------
          Amber 16 PMEMD                              2016
          -------------------------------------------------------

  [-O]verwriting output

File Assignments:

 Here is the input file:

Stage 1 heating 1 5ps 0-100K
 &cntrl
  imin=0, irest=1,ntx=5,
  nstlim=2500, dt=0.002,
  ntc=2, ntf=2,
  ntt=1, tautp=1.5,
  tempi=50.0, temp0=100.0,
  ntpr=50, ntwx=50,
  ntb=1,
  cut=10,
  /

Note: ig = -1. Setting random seed to   165361 based on wallclock time in
      microseconds.

--------------------------------------------------------------------------------
   1.  RESOURCE   USE:
--------------------------------------------------------------------------------

 getting box info from netcdf restart file
 NATOM  =   40441 NTYPES =      18 NBONH =   39702 MBONA  =     790
 NTHETH =     882 MTHETA =    1223 NPHIH =    1873 MPHIA  =    2454
 NHPARM =       0 NPARM  =       0 NNB   =   58518 NRES   =   13173
 NBONA  =     790 NTHETA =    1223 NPHIA =    2454 NUMBND =      73
 NUMANG =     152 NPTRA  =      87 NATYP =      37 NPHB   =       1
 IFBOX  =       2 NMXRS  =      34 IFCAP =       0 NEXTRA =       0
 NCOPY  =       0

     BOX TYPE: TRUNCATED OCTAHEDRON

--------------------------------------------------------------------------------
   2.  CONTROL  DATA  FOR  THE  RUN
--------------------------------------------------------------------------------

default_name

General flags:
     imin    =       0, nmropt  =       0

Nature and format of input:
     ntx     =       5, irest   =       1, ntrx    =       1

Nature and format of output:
     ntxo    =       2, ntpr    =      50, ntrx    =       1, ntwr    =    2500
     iwrap   =       0, ntwx    =      50, ntwv    =       0, ntwe    =       0
     ioutfm  =       1, ntwprt  =       0, idecomp =       0, rbornstat=      0

Potential function:
     ntf     =       2, ntb     =       1, igb     =       0, nsnb    =      25
     ipol    =       0, gbsa    =       0, iesp    =       0
     dielc   =   1.00000, cut     =  10.00000, intdiel =   1.00000

Frozen or restrained atoms:
     ibelly  =       0, ntr     =       0

Molecular dynamics:
     nstlim  =      2500, nscm    =      1000, nrespa  =         1
     t       =   0.00000, dt      =   0.00200, vlimit  =  -1.00000

Berendsen (weak-coupling) temperature regulation:
     temp0   = 100.00000, tempi   =  50.00000, tautp   =   1.50000

SHAKE:
     ntc     =       2, jfastw  =       0
     tol     =   0.00001

Ewald parameters:
     verbose =       0, ew_type =       0, nbflag  =       1, use_pme =       1
     vdwmeth =       1, eedmeth =       1, netfrc  =       1
     Box X =   83.809   Box Y =   83.809   Box Z =   83.809
     Alpha =  109.471   Beta  =  109.471   Gamma =  109.471
     NFFT1 =   84       NFFT2 =   84       NFFT3 =   84
     Cutoff=   10.000   Tol   =0.100E-04
     Ewald Coefficient =  0.27511
     Interpolation order =    4

--------------------------------------------------------------------------------
   3.  ATOMIC COORDINATES AND VELOCITIES
--------------------------------------------------------------------------------

default_name
 begin time read from input coords =     5.000 ps

 Number of triangulated 3-point waters found:    13107

     Sum of charges from parm topology file =   0.00000012
     Forcing neutrality...

--------------------------------------------------------------------------------
   4.  RESULTS
 NSTEP =       50   TIME(PS) =       5.100  TEMP(K) =    50.24  PRESS =     0.0
 Etot   =   -160507.1210  EKtot   =      4073.9326  EPtot      =   -164581.0537
 BOND   =        66.9492  ANGLE   =       258.3020  DIHED      =       815.4995
 1-4 NB =       262.4039  1-4 EEL =     -4479.1894  VDWAALS    =     27890.7382
 EELEC  =   -189395.7570  EHBOND  =         0.0000  RESTRAINT  =         0.0000
 ------------------------------------------------------------------------------

      A V E R A G E S   O V E R      50 S T E P S

 NSTEP =     2500   TIME(PS) =      10.000  TEMP(K) =    76.49  PRESS =     0.0
 Etot   =   -156531.4825  EKtot   =      6203.1817  EPtot      =   -162734.6642
 BOND   =        75.8160  ANGLE   =       281.3401  DIHED      =       820.5129
 1-4 NB =       266.1224  1-4 EEL =     -4490.4697  VDWAALS    =     27489.6728
 EELEC  =   -187177.6587  EHBOND  =         0.0000  RESTRAINT  =         0.0000
 ------------------------------------------------------------------------------

      R M S  F L U C T U A T I O N S

 NSTEP =     2500   TIME(PS) =      10.000  TEMP(K) =    12.39  PRESS =     0.0
 Etot   =      1789.9625  EKtot   =      1004.8875  EPtot      =       786.9694
 BOND   =         5.8754  ANGLE   =        11.3460  DIHED      =         6.3280
 1-4 NB =         3.3426  1-4 EEL =         8.5341  VDWAALS    =       227.8780
 EELEC  =       978.8654  EHBOND  =         0.0000  RESTRAINT  =         0.0000
 ------------------------------------------------------------------------------
