-------------------------------------------------------
          Amber 16 PMEMD                              2016
          -------------------------------------------------------

  [-O]verwriting output

File Assignments:

 Here is the input file:

Stage 2 equilibration 1 0-5ns
 &cntrl
  imin=0, irest=1, ntx=5,
  nstlim=2500, dt=0.002,
  ntc=2, ntf=2,
  ntt=1, tautp=1.5,
  tempi=100.0, temp0=150.0,
  ntpr=50, ntwx=50,
  ntb=1,
  cut=10,
 /

Note: ig = -1. Setting random seed to   917375 based on wallclock time in
      microseconds.

--------------------------------------------------------------------------------
   1.  RESOURCE   USE:
--------------------------------------------------------------------------------

 getting box info from netcdf restart file
 NATOM  =   36670 NTYPES =      18 NBONH =   35934 MBONA  =     787
 NTHETH =     879 MTHETA =    1217 NPHIH =    1867 MPHIA  =    2445
 NHPARM =       0 NPARM  =       0 NNB   =   53471 NRES   =   11918
 NBONA  =     787 NTHETA =    1217 NPHIA =    2445 NUMBND =      73
 NUMANG =     152 NPTRA  =      87 NATYP =      37 NPHB   =       1
 IFBOX  =       2 NMXRS  =      34 IFCAP =       0 NEXTRA =       0
 NCOPY  =       0

     BOX TYPE: TRUNCATED OCTAHEDRON

--------------------------------------------------------------------------------
   2.  CONTROL  DATA  FOR  THE  RUN
--------------------------------------------------------------------------------

default_name

General flags:
     imin    =       0, nmropt  =       0

Nature and format of input:
     ntx     =       5, irest   =       1, ntrx    =       1

Nature and format of output:
     ntxo    =       2, ntpr    =      50, ntrx    =       1, ntwr    =    2500
     iwrap   =       0, ntwx    =      50, ntwv    =       0, ntwe    =       0
     ioutfm  =       1, ntwprt  =       0, idecomp =       0, rbornstat=      0

Potential function:
     ntf     =       2, ntb     =       1, igb     =       0, nsnb    =      25
     ipol    =       0, gbsa    =       0, iesp    =       0
     dielc   =   1.00000, cut     =  10.00000, intdiel =   1.00000

Frozen or restrained atoms:
     ibelly  =       0, ntr     =       0

Molecular dynamics:
     nstlim  =      2500, nscm    =      1000, nrespa  =         1
     t       =   0.00000, dt      =   0.00200, vlimit  =  -1.00000

Berendsen (weak-coupling) temperature regulation:
     temp0   = 150.00000, tempi   = 100.00000, tautp   =   1.50000

SHAKE:
     ntc     =       2, jfastw  =       0
     tol     =   0.00001

Ewald parameters:
     verbose =       0, ew_type =       0, nbflag  =       1, use_pme =       1
     vdwmeth =       1, eedmeth =       1, netfrc  =       1
     Box X =   81.322   Box Y =   81.322   Box Z =   81.322
     Alpha =  109.471   Beta  =  109.471   Gamma =  109.471
     NFFT1 =   84       NFFT2 =   84       NFFT3 =   84
     Cutoff=   10.000   Tol   =0.100E-04
     Ewald Coefficient =  0.27511
     Interpolation order =    4

--------------------------------------------------------------------------------
   3.  ATOMIC COORDINATES AND VELOCITIES
--------------------------------------------------------------------------------

default_name
 begin time read from input coords =    10.000 ps

 Number of triangulated 3-point waters found:    11852

     Sum of charges from parm topology file =   0.00000012
     Forcing neutrality...

--------------------------------------------------------------------------------
   4.  RESULTS
 NSTEP =       50   TIME(PS) =      10.100  TEMP(K) =    94.02  PRESS =     0.0
 Etot   =   -139758.6760  EKtot   =      6919.5688  EPtot      =   -146678.2448
 BOND   =        75.3794  ANGLE   =       279.5860  DIHED      =       843.0630
 1-4 NB =       269.4684  1-4 EEL =     -3636.2090  VDWAALS    =     24856.7399
 EELEC  =   -169366.2725  EHBOND  =         0.0000  RESTRAINT  =         0.0000
 ------------------------------------------------------------------------------

      A V E R A G E S   O V E R      50 S T E P S

 NSTEP =     2500   TIME(PS) =      15.000  TEMP(K) =   122.16  PRESS =     0.0
 Etot   =   -135585.1359  EKtot   =      8990.9939  EPtot      =   -144576.1298
 BOND   =        97.2942  ANGLE   =       307.7514  DIHED      =       849.9726
 1-4 NB =       271.2916  1-4 EEL =     -3640.4011  VDWAALS    =     24135.8748
 EELEC  =   -166597.9133  EHBOND  =         0.0000  RESTRAINT  =         0.0000
 ------------------------------------------------------------------------------

      R M S  F L U C T U A T I O N S

 NSTEP =     2500   TIME(PS) =      15.000  TEMP(K) =    13.12  PRESS =     0.0
 Etot   =      1926.1189  EKtot   =       965.8060  EPtot      =       961.5349
 BOND   =        10.8916  ANGLE   =        18.5083  DIHED      =         5.2014
 1-4 NB =         4.2187  1-4 EEL =         9.8640  VDWAALS    =       343.1640
 EELEC  =      1267.8348  EHBOND  =         0.0000  RESTRAINT  =         0.0000
 ------------------------------------------------------------------------------
